Version 4
SHEET 1 1920 1892
WIRE 144 -48 16 -48
WIRE 336 -48 208 -48
WIRE -128 48 -576 48
WIRE -80 48 -128 48
WIRE 16 48 16 -48
WIRE 16 48 0 48
WIRE 32 48 16 48
WIRE 336 48 336 -48
WIRE 336 48 112 48
WIRE 352 48 336 48
WIRE 592 48 592 16
WIRE 592 48 352 48
WIRE 784 48 592 48
WIRE -576 80 -576 48
WIRE 112 96 96 96
WIRE 96 112 96 96
WIRE 16 144 16 48
WIRE 80 144 16 144
WIRE 336 144 336 48
WIRE 336 144 128 144
WIRE -128 160 -128 128
WIRE 80 160 0 160
WIRE 80 176 16 176
WIRE 336 176 128 176
WIRE -576 192 -576 160
WIRE -576 192 -608 192
WIRE 112 208 96 208
WIRE 112 224 112 208
WIRE -576 240 -576 192
WIRE -128 272 -448 272
WIRE -80 272 -128 272
WIRE 16 272 16 176
WIRE 16 272 0 272
WIRE 32 272 16 272
WIRE 336 272 336 176
WIRE 336 272 112 272
WIRE 352 272 336 272
WIRE 592 272 352 272
WIRE 784 272 592 272
WIRE 592 304 592 272
WIRE -448 320 -448 272
WIRE -448 320 -576 320
WIRE 16 368 16 272
WIRE 144 368 16 368
WIRE 336 368 336 272
WIRE 336 368 208 368
WIRE -128 400 -128 352
WIRE 240 544 192 544
WIRE 384 544 240 544
WIRE 192 560 192 544
WIRE 288 640 192 640
WIRE 384 640 384 624
WIRE 448 640 384 640
WIRE -96 656 -96 592
WIRE -288 672 -288 608
WIRE 288 720 288 704
WIRE 288 720 192 720
WIRE 192 752 192 720
FLAG -128 160 0
FLAG 592 304 VINN_A
IOPIN 592 304 Out
FLAG 592 16 VINP_A
IOPIN 592 16 Out
FLAG -608 192 0
FLAG 240 544 AVDD1
FLAG 448 640 0
FLAG 112 96 AVDD2
FLAG 112 224 0
FLAG 192 752 0
FLAG -96 592 V_BIAS
FLAG 0 160 V_BIAS
FLAG -128 400 0
FLAG -96 736 0
FLAG 352 48 E
FLAG 352 272 F
FLAG -288 608 AVDD2
FLAG -288 752 0
SYMBOL res 16 32 R90
WINDOW 0 0 56 VBottom 0
WINDOW 3 32 56 VTop 0
SYMATTR InstName R30
SYMATTR Value {R1}
SYMATTR SpiceLine tol=1 pwr=0.1
SYMBOL res -112 144 R180
WINDOW 0 36 76 Left 0
WINDOW 3 36 40 Left 0
SYMATTR InstName R9
SYMATTR Value {R0}
SYMATTR SpiceLine tol=1 pwr=0.1
SYMBOL res 128 256 R90
WINDOW 0 0 56 VBottom 0
WINDOW 3 32 56 VTop 0
SYMATTR InstName R34
SYMATTR Value {R2}
SYMATTR SpiceLine tol=1 pwr=0.1
SYMBOL res 128 32 R90
WINDOW 0 0 56 VBottom 0
WINDOW 3 32 56 VTop 0
SYMATTR InstName R31
SYMATTR Value {R2}
SYMATTR SpiceLine tol=1 pwr=0.1
SYMBOL voltage -576 64 R0
WINDOW 123 24 132 Left 0
WINDOW 39 24 132 Left 0
SYMATTR Value2 AC 0.2 0
SYMATTR InstName V1
SYMATTR Value 0
SYMBOL voltage 384 528 R0
WINDOW 123 0 0 Left 0
WINDOW 39 0 0 Left 0
WINDOW 0 43 48 Left 0
SYMATTR InstName V3_3
SYMATTR Value 3.3
SYMBOL res 176 544 R0
SYMATTR InstName R6
SYMATTR Value 1K
SYMATTR SpiceLine tol=1 pwr=0.1
SYMBOL res 176 624 R0
SYMATTR InstName R7
SYMATTR Value 1K
SYMATTR SpiceLine tol=1 pwr=0.1
SYMBOL cap 272 640 R0
SYMATTR InstName C24
SYMATTR Value 0.1µ
SYMBOL cap 208 -64 R90
WINDOW 0 0 32 VBottom 0
WINDOW 3 32 32 VTop 0
SYMATTR InstName C2
SYMATTR Value {C}
SYMBOL cap 208 384 M270
WINDOW 0 32 32 VTop 0
WINDOW 3 0 32 VBottom 0
SYMATTR InstName C5
SYMATTR Value {C}
SYMBOL res 16 256 R90
WINDOW 0 0 56 VBottom 0
WINDOW 3 32 56 VTop 0
SYMATTR InstName R3
SYMATTR Value {R1}
SYMATTR SpiceLine tol=1 pwr=0.1
SYMBOL ad8137 112 160 R0
SYMATTR InstName U2
SYMBOL voltage -96 640 R0
SYMATTR InstName V4
SYMATTR Value {V_B}
SYMBOL voltage -576 336 R180
WINDOW 123 24 132 Left 0
WINDOW 39 24 132 Left 0
SYMATTR Value2 AC -0.2 0
SYMATTR InstName V2
SYMATTR Value 0
SYMBOL res -144 256 R0
SYMATTR InstName R1
SYMATTR Value {R0}
SYMBOL voltage -288 656 R0
SYMATTR InstName V5
SYMATTR Value 5
TEXT 768 -272 Left 0 !.ac dec 10 1 3Meg
TEXT 504 -288 Left 0 !.param C=0
TEXT 504 -256 Left 0 ;.param C=0
TEXT 136 -128 Left 0 ;diff amp
TEXT -264 -264 Left 0 !.param R0=100
TEXT -672 -256 Left 0 !.param V_B=2
TEXT -672 -216 Left 0 ;.step param V_B 0.5 2.5 0.2
TEXT 216 -264 Left 0 !.param R2=50k
TEXT -48 -264 Left 0 !.param R1=536
TEXT 216 -224 Left 0 ;.step param R2 10k 40k 5k
RECTANGLE Normal -672 880 512 -176
RECTANGLE Normal -288 368 -640 -32
