Version 4
SHEET 1 880 680
WIRE 352 128 176 128
WIRE 80 144 -16 144
WIRE 352 144 352 128
WIRE 80 176 80 144
WIRE 128 176 80 176
FLAG -16 224 0
FLAG 352 224 0
FLAG 176 384 0
SYMBOL NMOSbook 160 176 R0
SYMATTR Value FDR6580
SYMATTR InstName M1
SYMBOL voltage -16 128 R0
SYMATTR InstName V1
SYMATTR Value {VGS}
SYMBOL voltage 352 128 R0
SYMATTR InstName V2
SYMATTR Value {VDS}
SYMBOL res 160 208 R0
SYMATTR InstName R1
SYMATTR Value 25
SYMBOL voltage 176 288 R0
SYMATTR InstName V3
SYMATTR Value 0.45
TEXT -488 48 Left 0 ;.step param VDS 0 3 0.2\n.step param VGS 0 2 0.2
TEXT -98 252 Left 0 !.op
TEXT -88 48 Left 0 ;.step param VDS 0 3 0.2
TEXT 296 48 Left 0 !.step param VGS 1 2 0.02
TEXT -88 80 Left 0 !.param VDS=3.3
