Version 4
SHEET 1 1456 1156
WIRE 144 -48 16 -48
WIRE 336 -48 208 -48
WIRE -1648 16 -1952 16
WIRE -1616 16 -1648 16
WIRE -1504 16 -1536 16
WIRE -1472 16 -1504 16
WIRE -1360 16 -1392 16
WIRE -1328 16 -1360 16
WIRE -1232 16 -1248 16
WIRE -1120 16 -1232 16
WIRE -1952 48 -1952 16
WIRE -1648 48 -1648 16
WIRE -1504 48 -1504 16
WIRE -1360 48 -1360 16
WIRE -1232 48 -1232 16
WIRE -1120 48 -1120 16
WIRE -128 48 -320 48
WIRE -80 48 -128 48
WIRE 16 48 16 -48
WIRE 16 48 0 48
WIRE 32 48 16 48
WIRE 336 48 336 -48
WIRE 336 48 112 48
WIRE 400 48 336 48
WIRE 592 48 592 16
WIRE 592 48 480 48
WIRE 912 48 592 48
WIRE 1008 48 992 48
WIRE -960 64 -1008 64
WIRE -512 64 -880 64
WIRE 112 96 96 96
WIRE 96 112 96 96
WIRE 16 144 16 48
WIRE 80 144 16 144
WIRE 336 144 336 48
WIRE 336 144 128 144
WIRE -1952 160 -1952 128
WIRE -128 160 -128 128
WIRE 80 160 0 160
WIRE -608 176 -608 160
WIRE 80 176 16 176
WIRE 336 176 128 176
WIRE -1648 208 -1648 128
WIRE -1648 208 -1680 208
WIRE -1360 208 -1360 128
WIRE -1360 208 -1648 208
WIRE -1008 208 -1008 64
WIRE -1008 208 -1360 208
WIRE -624 208 -1008 208
WIRE 112 208 96 208
WIRE -512 224 -512 64
WIRE -512 224 -560 224
WIRE -320 224 -320 48
WIRE -320 224 -512 224
WIRE 112 224 112 208
WIRE -1504 240 -1504 128
WIRE -1504 240 -1680 240
WIRE -1232 240 -1232 128
WIRE -1232 240 -1504 240
WIRE -688 240 -1232 240
WIRE -624 240 -688 240
WIRE -688 272 -688 240
WIRE 16 272 16 176
WIRE 16 272 -32 272
WIRE 32 272 16 272
WIRE 336 272 336 176
WIRE 336 272 112 272
WIRE 400 272 336 272
WIRE 592 272 480 272
WIRE 912 272 592 272
WIRE 1008 272 1008 48
WIRE 1008 272 992 272
WIRE 592 304 592 272
WIRE -112 368 -112 272
WIRE 16 368 16 272
WIRE 144 368 16 368
WIRE 336 368 336 272
WIRE 336 368 208 368
WIRE -608 384 -608 272
WIRE -496 384 -608 384
WIRE 240 544 192 544
WIRE 384 544 240 544
WIRE 192 560 192 544
WIRE 112 640 112 624
WIRE 192 640 112 640
WIRE 288 640 192 640
WIRE 384 640 384 624
WIRE 448 640 384 640
WIRE 288 720 288 704
WIRE 288 720 192 720
WIRE 192 752 192 720
WIRE 384 752 384 720
FLAG -128 160 0
FLAG 592 304 VINN_A
IOPIN 592 304 Out
FLAG 592 16 VINP_A
IOPIN 592 16 Out
FLAG -1952 160 0
FLAG 240 544 AVDD1
FLAG 448 640 0
FLAG 112 96 AVDD1
FLAG 112 224 0
FLAG 192 752 0
FLAG 112 624 V_BIAS
FLAG 0 160 V_BIAS
FLAG -112 368 0
FLAG -1120 128 0
FLAG -496 304 0
FLAG -688 272 0
FLAG -608 160 AVDD1
FLAG 384 752 AVDD2
SYMBOL res 16 32 R90
WINDOW 0 0 56 VBottom 0
WINDOW 3 32 56 VTop 0
SYMATTR InstName R30
SYMATTR Value 499
SYMATTR SpiceLine tol=1 pwr=0.1
SYMBOL res -112 144 R180
WINDOW 0 36 76 Left 0
WINDOW 3 36 40 Left 0
SYMATTR InstName R9
SYMATTR Value 100Meg
SYMATTR SpiceLine tol=1 pwr=0.1
SYMBOL res 128 256 R90
WINDOW 0 0 56 VBottom 0
WINDOW 3 32 56 VTop 0
SYMATTR InstName R34
SYMATTR Value 499
SYMATTR SpiceLine tol=1 pwr=0.1
SYMBOL res 128 32 R90
WINDOW 0 0 56 VBottom 0
WINDOW 3 32 56 VTop 0
SYMATTR InstName R31
SYMATTR Value 499
SYMATTR SpiceLine tol=1 pwr=0.1
SYMBOL res 896 288 R270
WINDOW 0 32 56 VTop 0
WINDOW 3 0 56 VBottom 0
SYMATTR InstName RN
SYMATTR Value 50
SYMATTR SpiceLine tol=1 pwr=0.1
SYMBOL voltage -1952 32 R0
WINDOW 123 24 132 Left 0
WINDOW 39 24 132 Left 0
SYMATTR Value2 AC 1.5 0
SYMATTR InstName V1
SYMATTR Value SINE(1.5 1.5 1Meg)
SYMBOL voltage 384 528 R0
WINDOW 123 0 0 Left 0
WINDOW 39 0 0 Left 0
WINDOW 0 43 48 Left 0
SYMATTR InstName V3_3
SYMATTR Value 3.3
SYMBOL res 176 544 R0
SYMATTR InstName R6
SYMATTR Value 1K
SYMATTR SpiceLine tol=1 pwr=0.1
SYMBOL res 176 624 R0
SYMATTR InstName R7
SYMATTR Value 1K
SYMATTR SpiceLine tol=1 pwr=0.1
SYMBOL cap 272 640 R0
SYMATTR InstName C24
SYMATTR Value 0.1µ
SYMBOL res 1008 32 R90
WINDOW 0 0 56 VBottom 0
WINDOW 3 32 56 VTop 0
SYMATTR InstName RP
SYMATTR Value 50
SYMBOL res 496 32 R90
WINDOW 0 0 56 VBottom 0
WINDOW 3 32 56 VTop 0
SYMATTR InstName R1
SYMATTR Value 33
SYMBOL res 496 256 R90
WINDOW 0 0 56 VBottom 0
WINDOW 3 32 56 VTop 0
SYMATTR InstName R2
SYMATTR Value 33
SYMBOL cap 208 -64 R90
WINDOW 0 0 32 VBottom 0
WINDOW 3 32 32 VTop 0
SYMATTR InstName C2
SYMATTR Value {C}
SYMBOL cap 208 384 M270
WINDOW 0 32 32 VTop 0
WINDOW 3 0 32 VBottom 0
SYMATTR InstName C5
SYMATTR Value {C}
SYMBOL res -16 256 R90
WINDOW 0 0 56 VBottom 0
WINDOW 3 32 56 VTop 0
SYMATTR InstName R3
SYMATTR Value 499
SYMATTR SpiceLine tol=1 pwr=0.1
SYMBOL res -1664 32 R0
SYMATTR InstName R4
SYMATTR Value {2*R}
SYMBOL res -1520 32 R0
SYMATTR InstName R5
SYMATTR Value {2*R}
SYMBOL res -1376 32 R0
SYMATTR InstName R8
SYMATTR Value {2*R}
SYMBOL res -1248 32 R0
SYMATTR InstName R10
SYMATTR Value {2*R}
SYMBOL res -1632 32 R270
WINDOW 0 32 56 VTop 0
WINDOW 3 0 56 VBottom 0
SYMATTR InstName R11
SYMATTR Value {R}
SYMBOL res -1488 32 R270
WINDOW 0 32 56 VTop 0
WINDOW 3 0 56 VBottom 0
SYMATTR InstName R12
SYMATTR Value {R}
SYMBOL res -1344 32 R270
WINDOW 0 32 56 VTop 0
WINDOW 3 0 56 VBottom 0
SYMATTR InstName R13
SYMATTR Value {R}
SYMBOL res -1136 32 R0
SYMATTR InstName R14
SYMATTR Value {2*R}
SYMBOL ad8629 -592 224 R0
SYMATTR InstName U1
SYMBOL res -976 80 R270
WINDOW 0 32 56 VTop 0
WINDOW 3 0 56 VBottom 0
SYMATTR InstName R15
SYMATTR Value {R}
SYMBOL ad8137 112 160 R0
SYMATTR InstName U2
SYMBOL voltage -496 288 R0
SYMATTR InstName V2
SYMATTR Value 3.3
SYMBOL voltage 384 624 R0
WINDOW 123 0 0 Left 0
WINDOW 39 0 0 Left 0
SYMATTR InstName V3
SYMATTR Value 3.3
TEXT -544 -384 Left 0 !.tran 10u
TEXT 896 -120 Left 0 ;Antenna
TEXT 136 -264 Left 0 ;.param C=212.2p
TEXT 136 -232 Left 0 !.param C=0
TEXT -1200 152 Left 0 ;2^0=1
TEXT -1344 152 Left 0 ;2^1=2
TEXT -1488 152 Left 0 ;2^2=4
TEXT -1632 152 Left 0 ;2^3=8
TEXT -1096 -120 Left 0 ;DAC
TEXT -640 -128 Left 0 ;opamp
TEXT 136 -128 Left 0 ;diff amp
TEXT -1280 -224 Left 0 !.param R=10k
RECTANGLE Normal -2032 800 512 -176
RECTANGLE Normal 1152 672 672 -176
RECTANGLE Normal -848 320 -2000 -80
