Version 4
SHEET 1 1456 1156
WIRE -304 -48 -432 -48
WIRE -112 -48 -240 -48
WIRE 224 -32 192 -32
WIRE 192 0 192 -32
WIRE -1648 16 -1952 16
WIRE -1616 16 -1648 16
WIRE -1504 16 -1536 16
WIRE -1472 16 -1504 16
WIRE -1360 16 -1392 16
WIRE -1328 16 -1360 16
WIRE -1232 16 -1248 16
WIRE -1120 16 -1232 16
WIRE -1952 48 -1952 16
WIRE -1648 48 -1648 16
WIRE -1504 48 -1504 16
WIRE -1360 48 -1360 16
WIRE -1232 48 -1232 16
WIRE -1120 48 -1120 16
WIRE -736 48 -816 48
WIRE -576 48 -656 48
WIRE -528 48 -576 48
WIRE -432 48 -432 -48
WIRE -432 48 -448 48
WIRE -416 48 -432 48
WIRE -112 48 -112 -48
WIRE -112 48 -336 48
WIRE 144 48 -112 48
WIRE 592 48 592 16
WIRE 592 48 464 48
WIRE 736 48 592 48
WIRE 928 48 736 48
WIRE 960 48 928 48
WIRE 1056 48 1040 48
WIRE 1184 48 1056 48
WIRE -960 64 -1008 64
WIRE -336 96 -352 96
WIRE 464 96 464 48
WIRE 464 96 192 96
WIRE -352 112 -352 96
WIRE 1184 112 1184 48
WIRE 928 128 928 48
WIRE 1056 128 1056 48
WIRE -432 144 -432 48
WIRE -368 144 -432 144
WIRE -112 144 -112 48
WIRE -112 144 -320 144
WIRE -1952 160 -1952 128
WIRE -576 160 -576 128
WIRE -368 160 -448 160
WIRE 736 160 736 128
WIRE 768 160 736 160
WIRE 864 160 848 160
WIRE -1664 176 -1728 176
WIRE -1648 176 -1648 128
WIRE -1648 176 -1664 176
WIRE -1504 176 -1504 128
WIRE -1504 176 -1568 176
WIRE -1360 176 -1360 128
WIRE -1360 176 -1408 176
WIRE -1344 176 -1360 176
WIRE -1232 176 -1232 128
WIRE -1232 176 -1248 176
WIRE -1184 176 -1232 176
WIRE -368 176 -432 176
WIRE -112 176 -320 176
WIRE 864 176 864 160
WIRE 224 192 192 192
WIRE 736 192 736 160
WIRE -336 208 -352 208
WIRE -336 224 -336 208
WIRE 192 224 192 192
WIRE -1728 272 -1728 256
WIRE -1568 272 -1568 256
WIRE -1568 272 -1728 272
WIRE -1408 272 -1408 256
WIRE -1408 272 -1568 272
WIRE -1248 272 -1248 256
WIRE -1248 272 -1408 272
WIRE -1008 272 -1008 64
WIRE -1008 272 -1248 272
WIRE -816 272 -816 48
WIRE -816 272 -1008 272
WIRE -736 272 -768 272
WIRE -576 272 -656 272
WIRE -528 272 -576 272
WIRE -432 272 -432 176
WIRE -432 272 -448 272
WIRE -416 272 -432 272
WIRE -112 272 -112 176
WIRE -112 272 -336 272
WIRE 144 272 -112 272
WIRE 592 272 464 272
WIRE 736 272 592 272
WIRE 928 272 928 192
WIRE 928 272 736 272
WIRE 960 272 928 272
WIRE 1056 272 1056 192
WIRE 1056 272 1040 272
WIRE 1184 272 1184 192
WIRE 1184 272 1056 272
WIRE -1664 304 -1664 256
WIRE -1664 304 -1728 304
WIRE -1504 304 -1504 256
WIRE -1504 304 -1664 304
WIRE -1344 304 -1344 256
WIRE -1344 304 -1504 304
WIRE -1184 304 -1184 256
WIRE -1184 304 -1344 304
WIRE -768 304 -768 272
WIRE -768 304 -1184 304
WIRE 592 304 592 272
WIRE 464 320 464 272
WIRE 464 320 192 320
WIRE -432 368 -432 272
WIRE -304 368 -432 368
WIRE -112 368 -112 272
WIRE -112 368 -240 368
WIRE -576 384 -576 352
WIRE 240 544 192 544
WIRE 384 544 240 544
WIRE 192 560 192 544
WIRE 288 640 192 640
WIRE 384 640 384 624
WIRE 448 640 384 640
WIRE 288 720 288 704
WIRE 288 720 192 720
WIRE 192 752 192 720
WIRE 384 752 384 720
FLAG -576 160 0
FLAG 592 304 VINN_A
IOPIN 592 304 Out
FLAG 592 16 VINP_A
IOPIN 592 16 Out
FLAG -1952 160 0
FLAG 240 544 AVDD1
FLAG 448 640 0
FLAG -336 96 AVDD1
FLAG -336 224 0
FLAG 192 752 0
FLAG -96 640 V_BIAS
FLAG -448 160 V_BIAS
FLAG -576 384 0
FLAG -1120 128 0
FLAG 384 752 AVDD2
FLAG 864 176 0
FLAG 224 -32 AVDD1
FLAG 224 192 AVDD1
FLAG -96 720 0
SYMBOL res -432 32 R90
WINDOW 0 0 56 VBottom 0
WINDOW 3 32 56 VTop 0
SYMATTR InstName R30
SYMATTR Value 499
SYMATTR SpiceLine tol=1 pwr=0.1
SYMBOL res -560 144 R180
WINDOW 0 36 76 Left 0
WINDOW 3 36 40 Left 0
SYMATTR InstName R9
SYMATTR Value 25
SYMATTR SpiceLine tol=1 pwr=0.1
SYMBOL res -320 256 R90
WINDOW 0 0 56 VBottom 0
WINDOW 3 32 56 VTop 0
SYMATTR InstName R34
SYMATTR Value 2k
SYMATTR SpiceLine tol=1 pwr=0.1
SYMBOL res -320 32 R90
WINDOW 0 0 56 VBottom 0
WINDOW 3 32 56 VTop 0
SYMATTR InstName R31
SYMATTR Value 2k
SYMATTR SpiceLine tol=1 pwr=0.1
SYMBOL voltage -1952 32 R0
WINDOW 123 24 132 Left 0
WINDOW 39 24 132 Left 0
SYMATTR Value2 AC 1.65 0
SYMATTR InstName V1
SYMATTR Value 5
SYMBOL voltage 384 528 R0
WINDOW 123 0 0 Left 0
WINDOW 39 0 0 Left 0
WINDOW 0 43 48 Left 0
SYMATTR InstName V3_3
SYMATTR Value 3.3
SYMBOL res 176 544 R0
SYMATTR InstName R6
SYMATTR Value 1K
SYMATTR SpiceLine tol=1 pwr=0.1
SYMBOL res 176 624 R0
SYMATTR InstName R7
SYMATTR Value 1K
SYMATTR SpiceLine tol=1 pwr=0.1
SYMBOL cap 272 640 R0
SYMATTR InstName C24
SYMATTR Value 0.1µ
SYMBOL cap -240 -64 R90
WINDOW 0 0 32 VBottom 0
WINDOW 3 32 32 VTop 0
SYMATTR InstName C2
SYMATTR Value {C}
SYMBOL cap -240 384 M270
WINDOW 0 32 32 VTop 0
WINDOW 3 0 32 VBottom 0
SYMATTR InstName C5
SYMATTR Value {C}
SYMBOL res -432 256 R90
WINDOW 0 0 56 VBottom 0
WINDOW 3 32 56 VTop 0
SYMATTR InstName R3
SYMATTR Value 499
SYMATTR SpiceLine tol=1 pwr=0.1
SYMBOL res -1664 32 R0
SYMATTR InstName R4
SYMATTR Value {2*R}
SYMBOL res -1520 32 R0
SYMATTR InstName R5
SYMATTR Value {2*R}
SYMBOL res -1376 32 R0
SYMATTR InstName R8
SYMATTR Value {2*R}
SYMBOL res -1248 32 R0
SYMATTR InstName R10
SYMATTR Value {2*R}
SYMBOL res -1632 32 R270
WINDOW 0 32 56 VTop 0
WINDOW 3 0 56 VBottom 0
SYMATTR InstName R11
SYMATTR Value {R}
SYMBOL res -1488 32 R270
WINDOW 0 32 56 VTop 0
WINDOW 3 0 56 VBottom 0
SYMATTR InstName R12
SYMATTR Value {R}
SYMBOL res -1344 32 R270
WINDOW 0 32 56 VTop 0
WINDOW 3 0 56 VBottom 0
SYMATTR InstName R13
SYMATTR Value {R}
SYMBOL res -1136 32 R0
SYMATTR InstName R14
SYMATTR Value {2*R}
SYMBOL res -976 80 R270
WINDOW 0 32 56 VTop 0
WINDOW 3 0 56 VBottom 0
SYMATTR InstName R15
SYMATTR Value {R}
SYMBOL ad8137 -336 160 R0
SYMATTR InstName U2
SYMBOL voltage 384 624 R0
WINDOW 123 0 0 Left 0
WINDOW 39 0 0 Left 0
SYMATTR InstName V3
SYMATTR Value 3.3
SYMBOL res -560 256 M0
SYMATTR InstName R1
SYMATTR Value 25
SYMBOL res 720 32 R0
SYMATTR InstName R101
SYMATTR Value 49.9
SYMBOL res 720 176 R0
SYMATTR InstName R102
SYMATTR Value 49.9
SYMBOL res 752 176 R270
WINDOW 0 32 56 VTop 0
WINDOW 3 0 56 VBottom 0
SYMATTR InstName R103
SYMATTR Value 10
SYMBOL cap 912 128 R0
SYMATTR InstName C174
SYMATTR Value 66p
SYMBOL cap 1040 128 R0
SYMATTR InstName C175
SYMATTR Value 66p
SYMBOL res 1168 96 R0
SYMATTR InstName R104
SYMATTR Value 100
SYMBOL ind 1056 32 R90
WINDOW 0 5 56 VBottom 0
WINDOW 3 32 56 VTop 0
SYMATTR InstName L186
SYMATTR Value 620n
SYMBOL ind 1056 256 R90
WINDOW 0 5 56 VBottom 0
WINDOW 3 32 56 VTop 0
SYMATTR InstName L187
SYMATTR Value 620n
SYMBOL voltage -96 624 R0
WINDOW 123 0 0 Left 0
WINDOW 39 0 0 Left 0
SYMATTR InstName V2
SYMATTR Value 1.1
SYMBOL res -1744 160 R0
WINDOW 3 36 76 Invisible 0
SYMATTR Value {if(bit3, 1u, 100Meg)}
SYMATTR InstName R2
SYMBOL res -1680 160 R0
WINDOW 3 36 76 Invisible 0
SYMATTR Value {if(bit3, 100Meg, 1u)}
SYMATTR InstName R16
SYMBOL res -1584 160 R0
WINDOW 3 36 76 Invisible 0
SYMATTR Value {if(bit2, 1u, 100Meg)}
SYMATTR InstName R17
SYMBOL res -1520 160 R0
WINDOW 3 36 76 Invisible 0
SYMATTR Value {if(bit2, 100Meg, 1u)}
SYMATTR InstName R18
SYMBOL res -1424 160 R0
WINDOW 3 36 76 Invisible 0
SYMATTR Value {if(bit1, 1u, 100Meg)}
SYMATTR InstName R19
SYMBOL res -1360 160 R0
WINDOW 3 36 76 Invisible 0
SYMATTR Value {if(bit1, 100Meg, 1u)}
SYMATTR InstName R20
SYMBOL res -1264 160 R0
WINDOW 3 36 76 Invisible 0
SYMATTR Value {if(bit0, 1u, 100Meg)}
SYMATTR InstName R21
SYMBOL res -1200 160 R0
WINDOW 3 36 76 Invisible 0
SYMATTR Value {if(bit0, 100Meg, 1u)}
SYMATTR InstName R22
SYMBOL PMOSbook 176 48 R0
SYMATTR Value ZXM62P02E6
SYMATTR InstName M1
SYMBOL PMOSbook 176 272 R0
SYMATTR Value ZXM62P02E6
SYMATTR InstName M2
SYMBOL res -640 32 R90
WINDOW 0 0 56 VBottom 0
WINDOW 3 32 56 VTop 0
SYMATTR InstName R23
SYMATTR Value 1p
SYMBOL res -640 256 R90
WINDOW 0 0 56 VBottom 0
WINDOW 3 32 56 VTop 0
SYMATTR InstName R24
SYMATTR Value 1p
TEXT -536 -240 Left 0 !.op
TEXT 896 -120 Left 0 ;RFX400
TEXT 136 -264 Left 0 ;.param C=212.2p
TEXT 136 -232 Left 0 !.param C=0
TEXT -1200 152 Left 0 ;2^0=1
TEXT -1344 152 Left 0 ;2^1=2
TEXT -1488 152 Left 0 ;2^2=4
TEXT -1632 152 Left 0 ;2^3=8
TEXT -1096 -120 Left 0 ;DAC
TEXT -312 -128 Left 0 ;diff amp
TEXT -1280 -224 Left 0 !.param R=10k
TEXT -2016 360 Left 0 !.param val3=val\n.param bit3=floor(val3/8)\n.param val2=val3-bit3*8\n.param bit2=floor(val2/4)\n.param val1=val2-bit2*4\n.param bit1=floor(val1/2)\n.param val0=val1-bit1*2\n.param bit0=floor(val0/1)
TEXT -1360 376 Left 0 !.step param val 0 15 1
RECTANGLE Normal -2032 800 512 -176
RECTANGLE Normal 1424 672 672 -176
RECTANGLE Normal -848 320 -2000 -80
