Version 4
SHEET 1 1456 680
WIRE -16 48 -400 48
WIRE 80 48 64 48
WIRE 96 48 80 48
WIRE 208 48 176 48
WIRE 304 48 208 48
WIRE 432 48 384 48
WIRE 592 48 592 16
WIRE 592 48 432 48
WIRE 816 48 592 48
WIRE 944 48 816 48
WIRE 944 112 944 48
WIRE -400 128 -400 48
WIRE 176 128 176 112
WIRE 80 144 80 48
WIRE 144 144 80 144
WIRE 208 144 208 48
WIRE 432 144 432 112
WIRE 816 144 816 112
WIRE 144 160 64 160
WIRE 144 176 80 176
WIRE 176 224 176 192
WIRE -400 272 -400 208
WIRE -16 272 -400 272
WIRE 80 272 80 176
WIRE 80 272 64 272
WIRE 96 272 80 272
WIRE 208 272 208 176
WIRE 208 272 176 272
WIRE 304 272 208 272
WIRE 432 272 384 272
WIRE 592 272 432 272
WIRE 816 272 592 272
WIRE 944 272 944 192
WIRE 944 272 816 272
WIRE 592 304 592 272
WIRE -464 352 -512 352
WIRE -384 352 -464 352
WIRE 432 368 432 336
WIRE 816 368 816 336
WIRE -512 432 -512 352
WIRE -592 512 -592 496
WIRE -512 512 -592 512
WIRE -416 512 -512 512
WIRE -304 512 -416 512
WIRE -416 592 -416 576
WIRE -416 592 -512 592
WIRE -304 592 -304 576
WIRE -304 592 -416 592
WIRE -512 640 -512 592
FLAG 432 144 0
FLAG 432 368 0
FLAG 592 304 VINP_A
IOPIN 592 304 Out
FLAG 592 16 VINN_A
IOPIN 592 16 Out
FLAG 816 144 0
FLAG 816 368 0
FLAG -464 352 AVDD1
FLAG -384 432 0
FLAG 176 112 AVDD1
FLAG 176 224 0
FLAG -512 640 0
FLAG -592 496 local_vref
FLAG 64 160 local_vref
SYMBOL res 80 256 R90
WINDOW 0 0 56 VBottom 0
WINDOW 3 32 56 VTop 0
SYMATTR InstName R67
SYMATTR Value 250
SYMATTR SpiceLine tol=0.1 pwr=0.1
SYMBOL res 80 32 R90
WINDOW 0 0 56 VBottom 0
WINDOW 3 32 56 VTop 0
SYMATTR InstName R68
SYMATTR Value 250
SYMATTR SpiceLine tol=0.1 pwr=0.1
SYMBOL res 400 256 R90
WINDOW 0 0 56 VBottom 0
WINDOW 3 32 56 VTop 0
SYMATTR InstName R71
SYMATTR Value 49.9
SYMATTR SpiceLine tol=1 pwr=0.1
SYMBOL res 192 256 R90
WINDOW 0 0 56 VBottom 0
WINDOW 3 32 56 VTop 0
SYMATTR InstName R66
SYMATTR Value 250
SYMATTR SpiceLine tol=0.1 pwr=0.1
SYMBOL res 192 32 R90
WINDOW 0 0 56 VBottom 0
WINDOW 3 32 56 VTop 0
SYMATTR InstName R65
SYMATTR Value 250
SYMATTR SpiceLine tol=0.1 pwr=0.1
SYMBOL res 400 32 R90
WINDOW 0 0 56 VBottom 0
WINDOW 3 32 56 VTop 0
SYMATTR InstName R10
SYMATTR Value 49.9
SYMATTR SpiceLine tol=1 pwr=0.1
SYMBOL cap 416 272 R0
WINDOW 0 -40 23 Left 0
WINDOW 3 -45 67 Left 0
SYMATTR InstName C65
SYMATTR Value 100p
SYMBOL cap 416 48 R0
WINDOW 0 -44 23 Left 0
WINDOW 3 -41 55 Left 0
SYMATTR InstName C64
SYMATTR Value 100p
SYMBOL cap 800 48 R0
WINDOW 0 -34 20 Left 0
WINDOW 3 -32 50 Left 0
SYMATTR InstName CN
SYMATTR Value 5p
SYMBOL res 960 208 R180
WINDOW 0 36 76 Left 0
WINDOW 3 36 40 Left 0
SYMATTR InstName RN
SYMATTR Value 200
SYMATTR SpiceLine tol=1 pwr=0.1
SYMBOL cap 800 272 R0
WINDOW 0 -35 23 Left 0
WINDOW 3 -33 52 Left 0
SYMATTR InstName CP
SYMATTR Value 5p
SYMBOL voltage -400 112 R0
WINDOW 123 24 132 Left 0
WINDOW 39 24 132 Left 0
SYMATTR Value2 AC 1 0
SYMATTR SpiceLine Rser=50
SYMATTR InstName V1
SYMATTR Value SINE(0 0.1 1Meg)
SYMBOL voltage -384 336 R0
WINDOW 123 0 0 Left 0
WINDOW 39 0 0 Left 0
WINDOW 0 43 48 Left 0
SYMATTR InstName V2
SYMATTR Value 3.3
SYMBOL ad8132 176 160 R0
SYMATTR InstName AD8132
SYMBOL res -528 416 R0
SYMATTR InstName R6
SYMATTR Value 1K
SYMATTR SpiceLine tol=1 pwr=0.1
SYMBOL res -528 496 R0
SYMATTR InstName R7
SYMATTR Value 1K
SYMATTR SpiceLine tol=1 pwr=0.1
SYMBOL cap -432 512 R0
SYMATTR InstName C24
SYMATTR Value 0.1µ
SYMBOL cap -320 512 R0
SYMATTR InstName C124
SYMATTR Value 1000p
TEXT 24 -216 Left 0 !.tran 10u
TEXT -616 264 Left 0 ;MAX2118
TEXT 920 448 Left 0 ;AD9862
TEXT 368 632 Left 0 ;DBSRX-LF
TEXT 832 632 Left 0 ;USRP motherboard
RECTANGLE Normal 752 480 1024 -112
RECTANGLE Normal -632 312 -160 0
RECTANGLE Normal -672 672 512 -176
RECTANGLE Normal 1088 672 672 -176
